Coordinates from ORCA-job me6bzgeo1 E -466.513787426040
  Avogadro

 30 34  0  0  0  0  0  0  0  0999 V2000
   -3.3619    1.9954   -0.0393 C   0  0  0  0  0  0  0  0  0  0  0  0
   -2.4254    0.9017    0.0766 C   0  0  0  0  0  0  0  0  0  0  0  0
   -2.7715   -0.5400    0.0695 C   0  0  0  0  0  0  0  0  0  0  0  0
   -3.1669    4.5459   -0.5449 C   0  0  0  0  0  0  0  0  0  0  0  0
   -2.1615    1.9467   -1.2262 C   0  0  0  0  0  0  0  0  0  0  0  0
   -1.0894    1.4453   -0.0229 C   0  0  0  0  0  0  0  0  0  0  0  0
    0.1590    0.6532   -0.1435 C   0  0  0  0  0  0  0  0  0  0  0  0
   -4.8314    1.8641   -0.1887 C   0  0  0  0  0  0  0  0  0  0  0  0
   -1.1998    2.8765   -0.1889 C   0  0  0  0  0  0  0  0  0  0  0  0
   -2.6041    3.2159   -0.2063 C   0  0  0  0  0  0  0  0  0  0  0  0
   -0.0863    3.7977   -0.5182 C   0  0  0  0  0  0  0  0  0  0  0  0
   -0.4019    4.6303   -1.1591 H   0  0  0  0  0  0  0  0  0  0  0  0
    0.2647    4.2312    0.4355 H   0  0  0  0  0  0  0  0  0  0  0  0
    0.7669    3.2836   -0.9775 H   0  0  0  0  0  0  0  0  0  0  0  0
   -0.0173   -0.3551   -0.5376 H   0  0  0  0  0  0  0  0  0  0  0  0
    0.9204    1.1551   -0.7531 H   0  0  0  0  0  0  0  0  0  0  0  0
    0.5709    0.5423    0.8752 H   0  0  0  0  0  0  0  0  0  0  0  0
   -3.7617   -0.7358   -0.3593 H   0  0  0  0  0  0  0  0  0  0  0  0
   -2.0211   -1.1528   -0.4457 H   0  0  0  0  0  0  0  0  0  0  0  0
   -2.7966   -0.8694    1.1236 H   0  0  0  0  0  0  0  0  0  0  0  0
   -5.1283    0.8939   -0.6057 H   0  0  0  0  0  0  0  0  0  0  0  0
   -5.2674    1.9371    0.8235 H   0  0  0  0  0  0  0  0  0  0  0  0
   -5.2669    2.6699   -0.7921 H   0  0  0  0  0  0  0  0  0  0  0  0
   -4.1489    4.4801   -1.0291 H   0  0  0  0  0  0  0  0  0  0  0  0
   -3.3042    5.0893    0.4068 H   0  0  0  0  0  0  0  0  0  0  0  0
   -2.4920    5.1436   -1.1698 H   0  0  0  0  0  0  0  0  0  0  0  0
   -2.1917    1.7672   -2.6961 C   0  0  0  0  0  0  0  0  0  0  0  0
   -2.0461    0.7078   -2.9565 H   0  0  0  0  0  0  0  0  0  0  0  0
   -1.3929    2.3575   -3.1702 H   0  0  0  0  0  0  0  0  0  0  0  0
   -3.1597    2.0971   -3.1027 H   0  0  0  0  0  0  0  0  0  0  0  0
  1  8  1  0  0  0  0
  1  5  1  0  0  0  0
  1  2  1  0  0  0  0
  1 10  1  0  0  0  0
  2  3  1  0  0  0  0
  2  5  1  0  0  0  0
  2  6  1  0  0  0  0
  3 18  1  0  0  0  0
  3 19  1  0  0  0  0
  3 20  1  0  0  0  0
  4 24  1  0  0  0  0
  4 10  1  0  0  0  0
  4 25  1  0  0  0  0
  4 26  1  0  0  0  0
  5 27  1  0  0  0  0
  5 10  1  0  0  0  0
  5  6  1  0  0  0  0
  5  9  1  0  0  0  0
  6  7  1  0  0  0  0
  6  9  1  0  0  0  0
  7 15  1  0  0  0  0
  7 17  1  0  0  0  0
  7 16  1  0  0  0  0
  8 21  1  0  0  0  0
  8 23  1  0  0  0  0
  8 22  1  0  0  0  0
  9 10  1  0  0  0  0
  9 11  1  0  0  0  0
 11 12  1  0  0  0  0
 11 13  1  0  0  0  0
 11 14  1  0  0  0  0
 27 28  1  0  0  0  0
 27 29  1  0  0  0  0
 27 30  1  0  0  0  0
M  END
